<?xml version="1.0" encoding="UTF-8"?>
<!DOCTYPE network SYSTEM "http://www.matsim.org/files/dtd/network_v1.dtd">
<network name="generated-grid">
    <nodes>
        <node id="1" x="10.0" y="10.0"/>
        <node id="2" x="10.0" y="110.0"/>
    </nodes>
    <links>
        <link id="1" from="1" to="2" length="100" freespeed="10.0" capacity="5000.0" permlanes="3.0" oneway="1" modes="car"/>
        <link id="2" from="2" to="1" length="100" freespeed="10.0" capacity="5000.0" permlanes="3.0" oneway="1" modes="car"/>
    </links>
</network>
